/ IEEE 24-Bus Dynamic Model Data
/ Generated from gridfm-datakit output

     1 ' 1' 'GENROU' 1 8.0000  0.3000 /
                      0.4000  0.0500  1.8000  0.1800  1.7000  0.5500 /
                      1.6400  0.2340  0.0000  4.0000  0.0000  0.0000  /

     1 ' 1' 'SEXS' 1 200.00  5.0000 /
                      1.0000 -1.0000  /

     1 ' 1' 'IEEEG1' 1 0.0000  0.0500  0.2000 /
                      0.0000  1.0000  0.0000  0.3000  0.2300  0.0000 /
                      0.1000  1.0000  0.0000  0.2000  0.0000 /

     1 ' 2' 'GENROU' 1 8.0000  0.3000 /
                      0.4000  0.0500  1.8000  0.1800  1.7000  0.5500 /
                      1.6400  0.2340  0.0000  4.0000  0.0000  0.0000  /

     1 ' 2' 'SEXS' 1 200.00  5.0000 /
                      1.0000 -1.0000  /

     1 ' 2' 'IEEEG1' 1 0.0000  0.0500  0.2000 /
                      0.0000  1.0000  0.0000  0.3000  0.2300  0.0000 /
                      0.1000  1.0000  0.0000  0.2000  0.0000 /

     1 ' 3' 'GENROU' 1 8.0000  0.3000 /
                      0.4000  0.0500  1.8000  0.1800  1.7000  0.5500 /
                      1.6400  0.2340  0.0000  4.0000  0.0000  0.0000  /

     1 ' 3' 'SEXS' 1 200.00  5.0000 /
                      1.0000 -1.0000  /

     1 ' 3' 'IEEEG1' 1 0.0000  0.0500  0.2000 /
                      0.0000  1.0000  0.0000  0.3000  0.2300  0.0000 /
                      0.1000  1.0000  0.0000  0.2000  0.0000 /

     1 ' 4' 'GENROU' 1 8.0000  0.3000 /
                      0.4000  0.0500  1.8000  0.1800  1.7000  0.5500 /
                      1.6400  0.2340  0.0000  4.0000  0.0000  0.0000  /

     1 ' 4' 'SEXS' 1 200.00  5.0000 /
                      1.0000 -1.0000  /

     1 ' 4' 'IEEEG1' 1 0.0000  0.0500  0.2000 /
                      0.0000  1.0000  0.0000  0.3000  0.2300  0.0000 /
                      0.1000  1.0000  0.0000  0.2000  0.0000 /

     2 ' 5' 'GENROU' 1 8.0000  0.3000 /
                      0.4000  0.0500  1.8000  0.1800  1.7000  0.5500 /
                      1.6400  0.2340  0.0000  4.0000  0.0000  0.0000  /

     2 ' 5' 'SEXS' 1 200.00  5.0000 /
                      1.0000 -1.0000  /

     2 ' 5' 'IEEEG1' 1 0.0000  0.0500  0.2000 /
                      0.0000  1.0000  0.0000  0.3000  0.2300  0.0000 /
                      0.1000  1.0000  0.0000  0.2000  0.0000 /

     2 ' 6' 'GENROU' 1 8.0000  0.3000 /
                      0.4000  0.0500  1.8000  0.1800  1.7000  0.5500 /
                      1.6400  0.2340  0.0000  4.0000  0.0000  0.0000  /

     2 ' 6' 'SEXS' 1 200.00  5.0000 /
                      1.0000 -1.0000  /

     2 ' 6' 'IEEEG1' 1 0.0000  0.0500  0.2000 /
                      0.0000  1.0000  0.0000  0.3000  0.2300  0.0000 /
                      0.1000  1.0000  0.0000  0.2000  0.0000 /

     2 ' 7' 'GENROU' 1 8.0000  0.3000 /
                      0.4000  0.0500  1.8000  0.1800  1.7000  0.5500 /
                      1.6400  0.2340  0.0000  4.0000  0.0000  0.0000  /

     2 ' 7' 'SEXS' 1 200.00  5.0000 /
                      1.0000 -1.0000  /

     2 ' 7' 'IEEEG1' 1 0.0000  0.0500  0.2000 /
                      0.0000  1.0000  0.0000  0.3000  0.2300  0.0000 /
                      0.1000  1.0000  0.0000  0.2000  0.0000 /

     2 ' 8' 'GENROU' 1 8.0000  0.3000 /
                      0.4000  0.0500  1.8000  0.1800  1.7000  0.5500 /
                      1.6400  0.2340  0.0000  4.0000  0.0000  0.0000  /

     2 ' 8' 'SEXS' 1 200.00  5.0000 /
                      1.0000 -1.0000  /

     2 ' 8' 'IEEEG1' 1 0.0000  0.0500  0.2000 /
                      0.0000  1.0000  0.0000  0.3000  0.2300  0.0000 /
                      0.1000  1.0000  0.0000  0.2000  0.0000 /

     7 ' 9' 'GENROU' 1 8.0000  0.3000 /
                      0.4000  0.0500  1.8000  0.1800  1.7000  0.5500 /
                      1.6400  0.2340  0.0000  4.0000  0.0000  0.0000  /

     7 ' 9' 'SEXS' 1 200.00  5.0000 /
                      1.0000 -1.0000  /

     7 ' 9' 'IEEEG1' 1 0.0000  0.0500  0.2000 /
                      0.0000  1.0000  0.0000  0.3000  0.2300  0.0000 /
                      0.1000  1.0000  0.0000  0.2000  0.0000 /

     7 '10' 'GENROU' 1 8.0000  0.3000 /
                      0.4000  0.0500  1.8000  0.1800  1.7000  0.5500 /
                      1.6400  0.2340  0.0000  4.0000  0.0000  0.0000  /

     7 '10' 'SEXS' 1 200.00  5.0000 /
                      1.0000 -1.0000  /

     7 '10' 'IEEEG1' 1 0.0000  0.0500  0.2000 /
                      0.0000  1.0000  0.0000  0.3000  0.2300  0.0000 /
                      0.1000  1.0000  0.0000  0.2000  0.0000 /

     7 '11' 'GENROU' 1 8.0000  0.3000 /
                      0.4000  0.0500  1.8000  0.1800  1.7000  0.5500 /
                      1.6400  0.2340  0.0000  4.0000  0.0000  0.0000  /

     7 '11' 'SEXS' 1 200.00  5.0000 /
                      1.0000 -1.0000  /

     7 '11' 'IEEEG1' 1 0.0000  0.0500  0.2000 /
                      0.0000  1.0000  0.0000  0.3000  0.2300  0.0000 /
                      0.1000  1.0000  0.0000  0.2000  0.0000 /

    13 '12' 'GENROU' 1 8.0000  0.3000 /
                      0.4000  0.0500  1.8000  0.1800  1.7000  0.5500 /
                      1.6400  0.2340  0.0000  4.0000  0.0000  0.0000  /

    13 '12' 'SEXS' 1 200.00  5.0000 /
                      1.0000 -1.0000  /

    13 '12' 'IEEEG1' 1 0.0000  0.0500  0.2000 /
                      0.0000  1.0000  0.0000  0.3000  0.2300  0.0000 /
                      0.1000  1.0000  0.0000  0.2000  0.0000 /

    13 '13' 'GENROU' 1 8.0000  0.3000 /
                      0.4000  0.0500  1.8000  0.1800  1.7000  0.5500 /
                      1.6400  0.2340  0.0000  4.0000  0.0000  0.0000  /

    13 '13' 'SEXS' 1 200.00  5.0000 /
                      1.0000 -1.0000  /

    13 '13' 'IEEEG1' 1 0.0000  0.0500  0.2000 /
                      0.0000  1.0000  0.0000  0.3000  0.2300  0.0000 /
                      0.1000  1.0000  0.0000  0.2000  0.0000 /

    13 '14' 'GENROU' 1 8.0000  0.3000 /
                      0.4000  0.0500  1.8000  0.1800  1.7000  0.5500 /
                      1.6400  0.2340  0.0000  4.0000  0.0000  0.0000  /

    13 '14' 'SEXS' 1 200.00  5.0000 /
                      1.0000 -1.0000  /

    13 '14' 'IEEEG1' 1 0.0000  0.0500  0.2000 /
                      0.0000  1.0000  0.0000  0.3000  0.2300  0.0000 /
                      0.1000  1.0000  0.0000  0.2000  0.0000 /

    14 '15' 'GENROU' 1 8.0000  0.3000 /
                      0.4000  0.0500  1.8000  0.1800  1.7000  0.5500 /
                      1.6400  0.2340  0.0000  4.0000  0.0000  0.0000  /

    14 '15' 'SEXS' 1 200.00  5.0000 /
                      1.0000 -1.0000  /

    14 '15' 'IEEEG1' 1 0.0000  0.0500  0.2000 /
                      0.0000  1.0000  0.0000  0.3000  0.2300  0.0000 /
                      0.1000  1.0000  0.0000  0.2000  0.0000 /

    15 '16' 'GENROU' 1 8.0000  0.3000 /
                      0.4000  0.0500  1.8000  0.1800  1.7000  0.5500 /
                      1.6400  0.2340  0.0000  4.0000  0.0000  0.0000  /

    15 '16' 'SEXS' 1 200.00  5.0000 /
                      1.0000 -1.0000  /

    15 '16' 'IEEEG1' 1 0.0000  0.0500  0.2000 /
                      0.0000  1.0000  0.0000  0.3000  0.2300  0.0000 /
                      0.1000  1.0000  0.0000  0.2000  0.0000 /

    15 '17' 'GENROU' 1 8.0000  0.3000 /
                      0.4000  0.0500  1.8000  0.1800  1.7000  0.5500 /
                      1.6400  0.2340  0.0000  4.0000  0.0000  0.0000  /

    15 '17' 'SEXS' 1 200.00  5.0000 /
                      1.0000 -1.0000  /

    15 '17' 'IEEEG1' 1 0.0000  0.0500  0.2000 /
                      0.0000  1.0000  0.0000  0.3000  0.2300  0.0000 /
                      0.1000  1.0000  0.0000  0.2000  0.0000 /

    15 '18' 'GENROU' 1 8.0000  0.3000 /
                      0.4000  0.0500  1.8000  0.1800  1.7000  0.5500 /
                      1.6400  0.2340  0.0000  4.0000  0.0000  0.0000  /

    15 '18' 'SEXS' 1 200.00  5.0000 /
                      1.0000 -1.0000  /

    15 '18' 'IEEEG1' 1 0.0000  0.0500  0.2000 /
                      0.0000  1.0000  0.0000  0.3000  0.2300  0.0000 /
                      0.1000  1.0000  0.0000  0.2000  0.0000 /

    15 '19' 'GENROU' 1 8.0000  0.3000 /
                      0.4000  0.0500  1.8000  0.1800  1.7000  0.5500 /
                      1.6400  0.2340  0.0000  4.0000  0.0000  0.0000  /

    15 '19' 'SEXS' 1 200.00  5.0000 /
                      1.0000 -1.0000  /

    15 '19' 'IEEEG1' 1 0.0000  0.0500  0.2000 /
                      0.0000  1.0000  0.0000  0.3000  0.2300  0.0000 /
                      0.1000  1.0000  0.0000  0.2000  0.0000 /

    15 '20' 'GENROU' 1 8.0000  0.3000 /
                      0.4000  0.0500  1.8000  0.1800  1.7000  0.5500 /
                      1.6400  0.2340  0.0000  4.0000  0.0000  0.0000  /

    15 '20' 'SEXS' 1 200.00  5.0000 /
                      1.0000 -1.0000  /

    15 '20' 'IEEEG1' 1 0.0000  0.0500  0.2000 /
                      0.0000  1.0000  0.0000  0.3000  0.2300  0.0000 /
                      0.1000  1.0000  0.0000  0.2000  0.0000 /

    15 '21' 'GENROU' 1 8.0000  0.3000 /
                      0.4000  0.0500  1.8000  0.1800  1.7000  0.5500 /
                      1.6400  0.2340  0.0000  4.0000  0.0000  0.0000  /

    15 '21' 'SEXS' 1 200.00  5.0000 /
                      1.0000 -1.0000  /

    15 '21' 'IEEEG1' 1 0.0000  0.0500  0.2000 /
                      0.0000  1.0000  0.0000  0.3000  0.2300  0.0000 /
                      0.1000  1.0000  0.0000  0.2000  0.0000 /

    16 '22' 'GENROU' 1 8.0000  0.3000 /
                      0.4000  0.0500  1.8000  0.1800  1.7000  0.5500 /
                      1.6400  0.2340  0.0000  4.0000  0.0000  0.0000  /

    16 '22' 'SEXS' 1 200.00  5.0000 /
                      1.0000 -1.0000  /

    16 '22' 'IEEEG1' 1 0.0000  0.0500  0.2000 /
                      0.0000  1.0000  0.0000  0.3000  0.2300  0.0000 /
                      0.1000  1.0000  0.0000  0.2000  0.0000 /

    18 '23' 'GENROU' 1 8.0000  0.3000 /
                      0.4000  0.0500  1.8000  0.1800  1.7000  0.5500 /
                      1.6400  0.2340  0.0000  4.0000  0.0000  0.0000  /

    18 '23' 'SEXS' 1 200.00  5.0000 /
                      1.0000 -1.0000  /

    18 '23' 'IEEEG1' 1 0.0000  0.0500  0.2000 /
                      0.0000  1.0000  0.0000  0.3000  0.2300  0.0000 /
                      0.1000  1.0000  0.0000  0.2000  0.0000 /

    21 '24' 'GENROU' 1 8.0000  0.3000 /
                      0.4000  0.0500  1.8000  0.1800  1.7000  0.5500 /
                      1.6400  0.2340  0.0000  4.0000  0.0000  0.0000  /

    21 '24' 'SEXS' 1 200.00  5.0000 /
                      1.0000 -1.0000  /

    21 '24' 'IEEEG1' 1 0.0000  0.0500  0.2000 /
                      0.0000  1.0000  0.0000  0.3000  0.2300  0.0000 /
                      0.1000  1.0000  0.0000  0.2000  0.0000 /

    22 '25' 'GENROU' 1 8.0000  0.3000 /
                      0.4000  0.0500  1.8000  0.1800  1.7000  0.5500 /
                      1.6400  0.2340  0.0000  4.0000  0.0000  0.0000  /

    22 '25' 'SEXS' 1 200.00  5.0000 /
                      1.0000 -1.0000  /

    22 '25' 'IEEEG1' 1 0.0000  0.0500  0.2000 /
                      0.0000  1.0000  0.0000  0.3000  0.2300  0.0000 /
                      0.1000  1.0000  0.0000  0.2000  0.0000 /

    22 '26' 'GENROU' 1 8.0000  0.3000 /
                      0.4000  0.0500  1.8000  0.1800  1.7000  0.5500 /
                      1.6400  0.2340  0.0000  4.0000  0.0000  0.0000  /

    22 '26' 'SEXS' 1 200.00  5.0000 /
                      1.0000 -1.0000  /

    22 '26' 'IEEEG1' 1 0.0000  0.0500  0.2000 /
                      0.0000  1.0000  0.0000  0.3000  0.2300  0.0000 /
                      0.1000  1.0000  0.0000  0.2000  0.0000 /

    22 '27' 'GENROU' 1 8.0000  0.3000 /
                      0.4000  0.0500  1.8000  0.1800  1.7000  0.5500 /
                      1.6400  0.2340  0.0000  4.0000  0.0000  0.0000  /

    22 '27' 'SEXS' 1 200.00  5.0000 /
                      1.0000 -1.0000  /

    22 '27' 'IEEEG1' 1 0.0000  0.0500  0.2000 /
                      0.0000  1.0000  0.0000  0.3000  0.2300  0.0000 /
                      0.1000  1.0000  0.0000  0.2000  0.0000 /

    22 '28' 'GENROU' 1 8.0000  0.3000 /
                      0.4000  0.0500  1.8000  0.1800  1.7000  0.5500 /
                      1.6400  0.2340  0.0000  4.0000  0.0000  0.0000  /

    22 '28' 'SEXS' 1 200.00  5.0000 /
                      1.0000 -1.0000  /

    22 '28' 'IEEEG1' 1 0.0000  0.0500  0.2000 /
                      0.0000  1.0000  0.0000  0.3000  0.2300  0.0000 /
                      0.1000  1.0000  0.0000  0.2000  0.0000 /

    22 '29' 'GENROU' 1 8.0000  0.3000 /
                      0.4000  0.0500  1.8000  0.1800  1.7000  0.5500 /
                      1.6400  0.2340  0.0000  4.0000  0.0000  0.0000  /

    22 '29' 'SEXS' 1 200.00  5.0000 /
                      1.0000 -1.0000  /

    22 '29' 'IEEEG1' 1 0.0000  0.0500  0.2000 /
                      0.0000  1.0000  0.0000  0.3000  0.2300  0.0000 /
                      0.1000  1.0000  0.0000  0.2000  0.0000 /

    22 '30' 'GENROU' 1 8.0000  0.3000 /
                      0.4000  0.0500  1.8000  0.1800  1.7000  0.5500 /
                      1.6400  0.2340  0.0000  4.0000  0.0000  0.0000  /

    22 '30' 'SEXS' 1 200.00  5.0000 /
                      1.0000 -1.0000  /

    22 '30' 'IEEEG1' 1 0.0000  0.0500  0.2000 /
                      0.0000  1.0000  0.0000  0.3000  0.2300  0.0000 /
                      0.1000  1.0000  0.0000  0.2000  0.0000 /

    23 '31' 'GENROU' 1 8.0000  0.3000 /
                      0.4000  0.0500  1.8000  0.1800  1.7000  0.5500 /
                      1.6400  0.2340  0.0000  4.0000  0.0000  0.0000  /

    23 '31' 'SEXS' 1 200.00  5.0000 /
                      1.0000 -1.0000  /

    23 '31' 'IEEEG1' 1 0.0000  0.0500  0.2000 /
                      0.0000  1.0000  0.0000  0.3000  0.2300  0.0000 /
                      0.1000  1.0000  0.0000  0.2000  0.0000 /

    23 '32' 'GENROU' 1 8.0000  0.3000 /
                      0.4000  0.0500  1.8000  0.1800  1.7000  0.5500 /
                      1.6400  0.2340  0.0000  4.0000  0.0000  0.0000  /

    23 '32' 'SEXS' 1 200.00  5.0000 /
                      1.0000 -1.0000  /

    23 '32' 'IEEEG1' 1 0.0000  0.0500  0.2000 /
                      0.0000  1.0000  0.0000  0.3000  0.2300  0.0000 /
                      0.1000  1.0000  0.0000  0.2000  0.0000 /

    23 '33' 'GENROU' 1 8.0000  0.3000 /
                      0.4000  0.0500  1.8000  0.1800  1.7000  0.5500 /
                      1.6400  0.2340  0.0000  4.0000  0.0000  0.0000  /

    23 '33' 'SEXS' 1 200.00  5.0000 /
                      1.0000 -1.0000  /

    23 '33' 'IEEEG1' 1 0.0000  0.0500  0.2000 /
                      0.0000  1.0000  0.0000  0.3000  0.2300  0.0000 /
                      0.1000  1.0000  0.0000  0.2000  0.0000 /

